testData/IEEE300/baseCases/IEEE300Bus_modified_noHVDC_v2_scalepercent_35.raw
0,   100.00, 30, 0, 1,  60.00     / PSS(R)E 30 RAW created by rawd30  WED, MAY 13 2020  14:35
 00/00/01                      100.0  0    0
 0
     1,'1           ', 115.0000,1,     0.000,     0.000,   1,   1,1.01311,  -1.7580,   1
     2,'2           ', 115.0000,1,     0.000,     0.000,   1,   1,1.02746,   0.6567,   1
     3,'3           ', 230.0000,1,     0.000,     0.000,   1,   1,0.97923,  -0.8385,   1
     4,'4           ', 345.0000,1,     0.000,     0.000,   1,   1,1.00784,  -3.3140,   1
     5,'5           ', 115.0000,1,     0.000,     0.000,   1,   1,1.00037,  -3.5354,   1
     6,'6           ', 115.0000,1,     0.000,     0.000,   1,   1,1.01982,  -0.3736,   1
     7,'7           ', 230.0000,1,     0.000,     0.000,   1,   1,0.97625,  -1.5375,   1
     8,'8           ', 115.0000,1,     0.000,     0.000,   1,   1,1.01529,  -6.8161,   1
     9,'9           ', 115.0000,1,     0.000,     0.000,   1,   1,0.98815,  -6.1540,   1
    10,'10          ', 230.0000,1,     0.000,     0.000,   1,   1,1.02049,  -8.2256,   1
    11,'11          ', 115.0000,1,     0.000,     0.000,   1,   1,1.00045,  -6.7583,   1
    12,'12          ', 230.0000,1,     0.000,     0.000,   1,   1,0.98470,  -2.9056,   1
    13,'13          ', 115.0000,1,     0.000,     0.000,   1,   1,0.99239, -10.9395,   1
    14,'14          ', 115.0000,1,     0.000,     0.000,   1,   1,0.97158, -16.3213,   1
    15,'15          ', 115.0000,1,     0.000,     0.000,   1,   1,1.00410, -21.1905,   1
    16,'16          ', 345.0000,1,     0.000,     0.000,   1,   1,0.99450, -12.8355,   1
    17,'17          ', 115.0000,1,     0.000,     0.000,   1,   1,1.03769, -28.0446,   1
    19,'19          ', 230.0000,1,     0.000,     0.000,   1,   1,0.96534,  -8.6463,   1
    20,'20          ', 115.0000,1,     0.000,     0.000,   1,   1,1.00098, -13.5836,   1
    21,'21          ', 230.0000,1,     0.000,     0.000,   1,   1,0.96360,  -7.9596,   1
    22,'22          ', 115.0000,1,     0.000,     0.000,   1,   1,0.98857, -12.8363,   1
    23,'23          ', 115.0000,1,     0.000,     0.000,   1,   1,1.04662,  -4.5300,   1
    24,'24          ', 230.0000,1,     0.000,     0.000,   1,   1,0.99845,  -1.7525,   1
    25,'25          ', 115.0000,1,     0.000,     0.000,   1,   1,1.00864,  -7.9352,   1
    26,'26          ', 115.0000,1,     0.000,     0.000,   1,   1,0.97466, -12.3530,   1
    27,'27          ', 115.0000,1,     0.000,     0.000,   1,   1,0.94788, -16.8473,   1
    33,'33          ', 115.0000,1,     0.000,     0.000,   1,   1,0.97270, -24.3720,   1
    34,'34          ', 345.0000,1,     0.000,     0.000,   1,   1,0.99629, -19.4098,   1
    35,'35          ', 115.0000,1,     0.000,     0.000,   1,   1,0.96739, -46.8421,   1
    36,'36          ', 230.0000,1,     0.000,     0.000,   1,   1,0.97191, -42.2057,   1
    37,'37          ', 115.0000,1,     0.000,     0.000,   1,   1,0.97255, -22.4432,   1
    38,'38          ', 115.0000,1,     0.000,     0.000,   1,   1,0.96703, -25.0834,   1
    39,'39          ', 345.0000,1,     0.000,     0.000,   1,   1,1.01585, -16.4318,   1
    40,'40          ', 115.0000,1,     0.000,     0.000,   1,   1,0.97149, -25.3880,   1
    41,'41          ', 115.0000,1,     0.000,     0.000,   1,   1,0.97769, -21.7482,   1
    42,'42          ', 345.0000,1,     0.000,     0.000,   1,   1,1.00097, -18.8218,   1
    43,'43          ', 115.0000,1,     0.000,     0.000,   1,   1,0.94171, -32.5016,   1
    44,'44          ', 115.0000,1,     0.000,     0.000,   1,   1,0.95610, -34.2640,   1
    45,'45          ', 230.0000,1,     0.000,     0.000,   1,   1,0.97068, -30.4675,   1
    46,'46          ', 345.0000,1,     0.000,     0.000,   1,   1,0.98289, -25.5744,   1
    47,'47          ', 115.0000,1,     0.000,     0.000,   1,   1,0.92132, -42.7486,   1
    48,'48          ', 115.0000,1,     0.000,     0.000,   1,   1,0.96166, -31.2446,   1
    49,'49          ', 115.0000,1,     0.000,     0.000,   1,   1,1.03379,  -5.1754,   1
    51,'51          ', 115.0000,1,     0.000,     0.000,   1,   1,0.97646, -16.2683,   1
    52,'52          ', 115.0000,1,     0.000,     0.000,   1,   1,0.93975, -23.8895,   1
    53,'53          ', 115.0000,1,     0.000,     0.000,   1,   1,0.93538, -33.8668,   1
    54,'54          ', 115.0000,1,     0.000,     0.000,   1,   1,0.95044, -32.0462,   1
    55,'55          ', 115.0000,1,     0.000,     0.000,   1,   1,0.97258, -25.9344,   1
    57,'57          ', 115.0000,1,     0.000,     0.000,   1,   1,1.01679, -22.6048,   1
    58,'58          ', 115.0000,1,     0.000,     0.000,   1,   1,0.96473, -20.9600,   1
    59,'59          ', 115.0000,1,     0.000,     0.000,   1,   1,0.94965, -20.3080,   1
    60,'60          ', 230.0000,1,     0.000,     0.000,   1,   1,0.98534, -24.5554,   1
    61,'61          ', 115.0000,1,     0.000,     0.000,   1,   1,0.96819, -17.8711,   1
    62,'62          ', 230.0000,1,     0.000,     0.000,   1,   1,0.99936, -15.2158,   1
    63,'63          ', 115.0000,1,     0.000,     0.000,   1,   1,0.95829, -38.5986,   1
    64,'64          ', 230.0000,1,     0.000,     0.000,   1,   1,0.93248, -32.2230,   1
    69,'69          ', 115.0000,1,     0.000,     0.000,   1,   1,0.92869, -46.7829,   1
    70,'70          ', 115.0000,1,     0.000,     0.000,   1,   1,0.90353, -60.2962,   1
    71,'71          ', 115.0000,1,     0.000,     0.000,   1,   1,0.94988, -52.6087,   1
    72,'72          ', 115.0000,1,     0.000,     0.000,   1,   1,0.95139, -49.2430,   1
    73,'73          ', 115.0000,1,     0.000,     0.000,   1,   1,0.94194, -46.6290,   1
    74,'74          ', 230.0000,1,     0.000,     0.000,   1,   1,0.95062, -41.1857,   1
    76,'76          ', 115.0000,1,     0.000,     0.000,   1,   1,0.96317, -48.3327,   1
    77,'77          ', 115.0000,1,     0.000,     0.000,   1,   1,0.97245, -45.6655,   1
    78,'78          ', 115.0000,1,     0.000,     0.000,   1,   1,0.97821, -44.4089,   1
    79,'79          ', 115.0000,1,     0.000,     0.000,   1,   1,0.96044, -45.6434,   1
    80,'80          ', 115.0000,1,     0.000,     0.000,   1,   1,0.97077, -45.4649,   1
    81,'81          ', 345.0000,1,     0.000,     0.000,   1,   1,0.99591, -36.4075,   1
    84,'84          ', 115.0000,1,     0.000,     0.000,   1,   1,1.02498, -34.9011,   1
    85,'85          ', 230.0000,1,     0.000,     0.000,   1,   1,0.97474, -34.9022,   1
    86,'86          ', 230.0000,1,     0.000,     0.000,   1,   1,0.97188, -29.8790,   1
    87,'87          ', 230.0000,1,     0.000,     0.000,   1,   1,0.96742, -20.8667,   1
    88,'88          ', 230.0000,1,     0.000,     0.000,   1,   1,0.97786, -39.5843,   1
    89,'89          ', 115.0000,1,     0.000,     0.000,   1,   1,1.00853, -24.3775,   1
    90,'90          ', 115.0000,1,     0.000,     0.000,   1,   1,0.99419, -23.8133,   1
    91,'91          ', 115.0000,1,     0.000,     0.000,   1,   1,1.05199, -22.7234,   1
    92,'92          ', 115.0000,1,     0.000,     0.000,   1,   1,1.05199, -17.7883,   1
    94,'94          ', 115.0000,1,     0.000,     0.000,   1,   1,0.97286, -23.1236,   1
    97,'97          ', 115.0000,1,     0.000,     0.000,   1,   1,1.00932, -28.1720,   1
    98,'98          ', 115.0000,1,     0.000,     0.000,   1,   1,1.00000, -30.4861,   1
    99,'99          ', 115.0000,1,     0.000,     0.000,   1,   1,0.98643, -38.5193,   1
   100,'100         ', 115.0000,1,     0.000,     0.000,   1,   1,0.99832, -30.0681,   1
   102,'102         ', 115.0000,1,     0.000,     0.000,   1,   1,0.98973, -31.1899,   1
   103,'103         ', 115.0000,1,     0.000,     0.000,   1,   1,1.01689, -26.1056,   1
   104,'104         ', 115.0000,1,     0.000,     0.000,   1,   1,0.98639, -34.2295,   1
   105,'105         ', 115.0000,1,     0.000,     0.000,   1,   1,1.00474, -27.2600,   1
   107,'107         ', 115.0000,1,     0.000,     0.000,   1,   1,0.98472, -31.6214,   1
   108,'108         ', 115.0000,1,     0.000,     0.000,   1,   1,0.98999, -38.5819,   1
   109,'109         ', 115.0000,1,     0.000,     0.000,   1,   1,0.93976, -46.8239,   1
   110,'110         ', 115.0000,1,     0.000,     0.000,   1,   1,0.94133, -44.7250,   1
   112,'112         ', 115.0000,1,     0.000,     0.000,   1,   1,0.93729, -50.7247,   1
   113,'113         ', 115.0000,1,     0.000,     0.000,   1,   1,0.91586, -45.9998,   1
   114,'114         ', 115.0000,1,     0.000,     0.000,   1,   1,0.94062, -50.6091,   1
   115,'115         ', 115.0000,1,     0.000,     0.000,   2,   2,0.74885,  -0.8743,   1
   116,'116         ', 115.0000,1,     0.000,     0.000,   2,   2,1.02195,  11.2096,   1
   117,'117         ', 115.0000,1,     0.000,   438.750,   2,   2,0.72564,  24.4517,   1
   118,'118         ', 115.0000,1,     0.000,     0.000,   2,   2,0.72162,  26.5947,   1
   119,'119         ', 115.0000,1,     0.000,     0.000,   2,   2,1.04323,  49.5725,   1
   120,'120         ', 115.0000,1,     0.000,    74.250,   2,   2,0.97481,  41.5341,   1
   121,'121         ', 115.0000,1,     0.000,     0.000,   2,   2,0.67174,   4.6762,   1
   122,'122         ', 115.0000,1,     0.000,     0.000,   2,   2,0.74561,  -4.8789,   1
   123,'123         ', 115.0000,1,     0.000,     0.000,   2,   2,0.91658, -10.5598,   1
   124,'124         ', 115.0000,1,     0.000,     0.000,   2,   2,1.02325,   6.0877,   1
   125,'125         ', 115.0000,1,     0.000,     0.000,   2,   2,1.01021, -25.5364,   1
   126,'126         ', 115.0000,1,     0.000,     0.000,   2,   2,0.91457, -18.9279,   1
   127,'127         ', 230.0000,1,     0.000,     0.000,   2,   2,0.94527, -25.0738,   1
   128,'128         ', 230.0000,1,     0.000,     0.000,   2,   2,0.96518, -21.1427,   1
   129,'129         ', 230.0000,1,     0.000,     0.000,   2,   2,0.96435, -20.0287,   1
   130,'130         ', 230.0000,1,     0.000,     0.000,   2,   2,0.98887,  -3.1460,   1
   131,'131         ', 230.0000,1,     0.000,     0.000,   2,   2,0.96520,  -1.9152,   1
   132,'132         ', 230.0000,1,     0.000,     0.000,   2,   2,0.97824,  -5.9474,   1
   133,'133         ', 230.0000,1,     0.000,     0.000,   2,   2,0.97615, -24.3680,   1
   134,'134         ', 230.0000,1,     0.000,     0.000,   2,   2,0.98547, -23.6624,   1
   135,'135         ', 230.0000,1,     0.000,     0.000,   2,   2,0.98260, -23.6551,   1
   136,'136         ', 230.0000,1,     0.000,     0.000,   2,   2,1.02589, -15.6754,   1
   137,'137         ', 230.0000,1,     0.000,     0.000,   2,   2,1.03149, -24.1412,   1
   138,'138         ', 230.0000,1,     0.000,     0.000,   2,   2,1.05494, -37.0270,   1
   139,'139         ', 115.0000,1,     0.000,     0.000,   2,   2,0.99355, -26.5035,   1
   140,'140         ', 230.0000,1,     0.000,     0.000,   2,   2,1.01952, -26.4151,   1
   141,'141         ', 230.0000,1,     0.000,     0.000,   2,   2,1.05099, -21.2447,   1
   142,'142         ', 230.0000,1,     0.000,     0.000,   2,   2,0.97203, -23.3469,   1
   143,'143         ', 230.0000,1,     0.000,     0.000,   2,   2,1.04347, -12.6648,   1
   144,'144         ', 230.0000,1,     0.000,     0.000,   2,   2,1.00047, -15.0212,   1
   145,'145         ', 230.0000,1,     0.000,     0.000,   2,   2,0.97611, -19.6533,   1
   146,'146         ', 230.0000,1,     0.000,     0.000,   2,   2,1.05279, -14.3293,   1
   147,'147         ', 230.0000,1,     0.000,     0.000,   2,   2,1.05280,  -8.9961,   1
   148,'148         ', 230.0000,1,     0.000,     0.000,   2,   2,1.03907, -18.1189,   1
   149,'149         ', 230.0000,1,     0.000,     0.000,   2,   2,1.07349, -11.3943,   1
   150,'150         ', 230.0000,1,     0.000,     0.000,   2,   2,0.96464,  -1.5155,   1
   151,'151         ', 230.0000,1,     0.000,     0.000,   2,   2,0.98180,  -5.1222,   1
   152,'152         ', 230.0000,1,     0.000,     0.000,   2,   2,1.05350,  -5.5955,   1
   153,'153         ', 230.0000,1,     0.000,     0.000,   2,   2,1.04350,  -5.0702,   1
   154,'154         ', 115.0000,1,     0.000,    46.575,   2,   2,0.95623, -22.1990,   1
   155,'155         ', 230.0000,1,     0.000,     0.000,   2,   2,0.98173, -10.9875,   1
   156,'156         ', 115.0000,1,     0.000,     0.000,   2,   2,0.96298, -13.2960,   1
   157,'157         ', 230.0000,1,     0.000,     0.000,   2,   2,0.75866,  -1.3040,   1
   158,'158         ', 230.0000,1,     0.000,     0.000,   2,   2,0.82960,  -1.3835,   1
   159,'159         ', 230.0000,1,     0.000,     0.000,   2,   2,0.74149,   6.4255,   1
   160,'160         ', 230.0000,1,     0.000,     0.000,   2,   2,0.92550,   2.7194,   1
   161,'161         ', 230.0000,1,     0.000,     0.000,   2,   2,1.02171,  -7.4975,   1
   162,'162         ', 230.0000,1,     0.000,     0.000,   2,   2,0.92041,   7.0056,   1
   163,'163         ', 230.0000,1,     0.000,     0.000,   2,   2,0.99654, -17.5227,   1
   164,'164         ', 230.0000,1,     0.000,  -286.200,   2,   2,0.92140,  -6.8385,   1
   165,'165         ', 230.0000,1,     0.000,     0.000,   2,   2,0.94992,  18.9858,   1
   166,'166         ', 230.0000,1,     0.000,  -139.050,   2,   2,0.96443,  24.7636,   1
   167,'167         ', 230.0000,1,     0.000,     0.000,   2,   2,0.91377, -23.5529,   1
   168,'168         ', 230.0000,1,     0.000,     0.000,   2,   2,0.96529, -21.1824,   1
   169,'169         ', 230.0000,1,     0.000,     0.000,   2,   2,0.94260, -23.6108,   1
   170,'170         ', 115.0000,1,     0.000,     0.000,   2,   2,0.92897, -10.4102,   1
   171,'171         ', 115.0000,1,     0.000,     0.000,   2,   2,0.98285, -30.6152,   1
   172,'172         ', 115.0000,1,     0.000,     0.000,   2,   2,0.98949, -29.9465,   1
   173,'173         ', 115.0000,1,     0.000,    71.550,   2,   2,0.90303, -39.4830,   1
   174,'174         ', 115.0000,1,     0.000,     0.000,   2,   2,1.04558, -24.9917,   1
   175,'175         ', 115.0000,1,     0.000,     0.000,   2,   2,0.90764, -30.2342,   1
   176,'176         ', 115.0000,1,     0.000,     0.000,   2,   2,1.05219, -13.9220,   1
   177,'177         ', 115.0000,1,     0.000,     0.000,   2,   2,1.00769, -19.5901,   1
   178,'178         ', 115.0000,1,     0.000,     0.000,   2,   2,0.87620, -29.2361,   1
   179,'179         ', 115.0000,1,     0.000,    60.750,   2,   2,0.89764, -33.1485,   1
   180,'180         ', 115.0000,1,     0.000,     0.000,   2,   2,0.93291, -23.9603,   1
   181,'181         ', 230.0000,1,     0.000,     0.000,   2,   2,1.03815, -24.8575,   1
   182,'182         ', 230.0000,1,     0.000,     0.000,   2,   2,1.02052, -27.4340,   1
   183,'183         ', 115.0000,1,     0.000,     0.000,   2,   2,0.96785,  -9.6749,   1
   184,'184         ', 230.0000,1,     0.000,     0.000,   2,   2,1.02199, -22.0120,   1
   185,'185         ', 230.0000,1,     0.000,     0.000,   2,   2,1.05219, -18.6054,   1
   186,'186         ', 230.0000,1,     0.000,     0.000,   2,   2,1.06495, -19.6934,   1
   187,'187         ', 230.0000,1,     0.000,     0.000,   2,   2,1.06494, -21.0964,   1
   188,'188         ', 230.0000,1,     0.000,     0.000,   2,   2,1.04161, -23.9459,   1
   189,'189         ',  66.0000,1,     0.000,     0.000,   3,   3,0.97294, -46.7430,   1
   190,'190         ', 345.0000,1,     0.000,  -202.500,   3,   3,1.05506, -38.9508,   1
   191,'191         ', 230.0000,1,     0.000,     0.000,   3,   3,1.04335,  15.2922,   1
   192,'192         ', 230.0000,1,     0.000,     0.000,   3,   3,0.79791, -23.4081,   1
   193,'192         ',  66.0000,1,     0.000,     0.000,   3,   3,0.95860, -47.6388,   1
   194,'194         ', 345.0000,1,     0.000,     0.000,   3,   3,1.01931, -36.8266,   1
   195,'195         ', 345.0000,1,     0.000,     0.000,   3,   3,1.01247, -39.1318,   1
   196,'196         ', 115.0000,1,     0.000,     0.000,   3,   3,0.94487, -45.3649,   1
   197,'197         ', 115.0000,1,     0.000,     0.000,   3,   3,0.97346, -43.3192,   1
   198,'198         ', 115.0000,1,     0.000,     0.000,   3,   3,1.01498, -39.1623,   1
   199,'199         ', 115.0000,1,     0.000,     0.000,   3,   3,0.92345, -46.6395,   1
   200,'200         ', 115.0000,1,     0.000,     0.000,   3,   3,0.92711, -46.4739,   1
   201,'201         ',  66.0000,1,     0.000,     0.000,   1,   1,0.92533, -49.8931,   1
   202,'202         ',  66.0000,1,     0.000,     0.000,   3,   3,0.96627, -45.6046,   1
   203,'203         ', 115.0000,1,     0.000,     0.000,   3,   3,0.99286, -41.5172,   1
   204,'204         ',  66.0000,1,     0.000,     0.000,   3,   3,0.92295, -48.1336,   1
   205,'205         ',  66.0000,1,     0.000,     0.000,   3,   3,0.94508, -48.0490,   1
   206,'206         ',  66.0000,1,     0.000,     0.000,   3,   3,0.96594, -49.2145,   1
   207,'207         ',  66.0000,1,     0.000,     0.000,   1,   1,0.98465, -49.0760,   1
   208,'208         ',  66.0000,1,     0.000,     0.000,   3,   3,0.96416, -47.5978,   1
   209,'209         ',  66.0000,1,     0.000,     0.000,   3,   3,0.97769, -46.4128,   1
   210,'210         ', 115.0000,1,     0.000,     0.000,   3,   3,0.95983, -44.0601,   1
   211,'211         ', 115.0000,1,     0.000,     0.000,   3,   3,0.98329, -42.7969,   1
   212,'212         ', 138.0000,1,     0.000,     0.000,   3,   3,0.99435, -41.5824,   1
   213,'213         ',  16.5000,1,     0.000,     0.000,   3,   3,1.00999, -26.7259,   1
   214,'214         ', 138.0000,1,     0.000,     0.000,   3,   3,0.98566, -34.7476,   1
   215,'215         ', 138.0000,1,     0.000,     0.000,   3,   3,0.97069, -38.4463,   1
   216,'216         ', 138.0000,1,     0.000,     0.000,   3,   3,0.95036, -41.6055,   1
   217,'217         ', 138.0000,1,     0.000,     0.000,   3,   3,1.00688, -41.0468,   1
   218,'218         ', 138.0000,1,     0.000,     0.000,   3,   3,0.99282, -41.6309,   1
...
 0 /End of Bus data, Begin Load data
     1,'1 ',1,   1,   1,   121.500,    66.150,     0.000,     0.000,     0.000,     0.000,   1
     2,'1 ',1,   1,   1,    75.600,    20.250,     0.000,     0.000,     0.000,     0.000,   1
     3,'1 ',1,   1,   1,    27.000,     0.000,     0.000,     0.000,     0.000,     0.000,   1
     5,'1 ',1,   1,   1,   476.550,   175.500,     0.000,     0.000,     0.000,     0.000,   1
     6,'1 ',1,   1,   1,   162.000,    55.350,     0.000,     0.000,     0.000,     0.000,   1
     8,'1 ',1,   1,   1,    78.300,    18.900,     0.000,     0.000,     0.000,     0.000,   1
     9,'1 ',1,   1,   1,   129.600,    58.050,     0.000,     0.000,     0.000,     0.000,   1
    10,'1 ',1,   1,   1,   199.800,    44.550,     0.000,     0.000,     0.000,     0.000,   1
    11,'1 ',1,   1,   1,   112.050,    28.350,     0.000,     0.000,     0.000,     0.000,   1
    13,'1 ',1,   1,   1,    78.300,    13.500,     0.000,     0.000,     0.000,     0.000,   1
    14,'1 ',1,   1,   1,   216.000,    81.000,     0.000,     0.000,     0.000,     0.000,   1
    15,'1 ',1,   1,   1,   171.045,    31.050,     0.000,     0.000,     0.000,     0.000,   1
    17,'1 ',1,   1,   1,   757.350,   297.000,     0.000,     0.000,     0.000,     0.000,   1
    20,'1 ',1,   1,   1,   803.250,   162.000,     0.000,     0.000,     0.000,     0.000,   1
    21,'1 ',1,   1,   1,   103.950,     1.350,     0.000,     0.000,     0.000,     0.000,   1
    22,'1 ',1,   1,   1,   109.350,    31.050,     0.000,     0.000,     0.000,     0.000,   1
    23,'1 ',1,   1,   1,    28.350,     9.450,     0.000,     0.000,     0.000,     0.000,   1
    25,'1 ',1,   1,   1,    60.750,    16.200,     0.000,     0.000,     0.000,     0.000,   1
    26,'1 ',1,   1,   1,    37.800,    12.150,     0.000,     0.000,     0.000,     0.000,   1
    27,'1 ',1,   1,   1,    93.150,    17.550,     0.000,     0.000,     0.000,     0.000,   1
    33,'1 ',1,   1,   1,    74.250,     8.100,     0.000,     0.000,     0.000,     0.000,   1
    37,'1 ',1,   1,   1,   114.750,    43.200,     0.000,     0.000,     0.000,     0.000,   1
    38,'1 ',1,   1,   1,   209.250,    24.300,     0.000,     0.000,     0.000,     0.000,   1
    40,'1 ',1,   1,   1,    62.100,   -28.350,     0.000,     0.000,     0.000,     0.000,   1
    41,'1 ',1,   1,   1,   116.100,     0.000,     0.000,     0.000,     0.000,     0.000,   1
    43,'1 ',1,   1,   1,    52.650,    12.150,     0.000,     0.000,     0.000,     0.000,   1
    44,'1 ',1,   1,   1,   263.250,    39.150,     0.000,     0.000,     0.000,     0.000,   1
    47,'1 ',1,   1,   1,    78.300,    15.930,     0.000,     0.000,     0.000,     0.000,   1
    48,'1 ',1,   1,   1,    55.350,    25.650,     0.000,     0.000,     0.000,     0.000,   1
    49,'1 ',1,   1,   1,   124.200,    35.100,     0.000,     0.000,     0.000,     0.000,   1
    51,'1 ',1,   1,   1,    -6.750,     6.750,     0.000,     0.000,     0.000,     0.000,   1
    52,'1 ',1,   1,   1,    82.350,    37.800,     0.000,     0.000,     0.000,     0.000,   1
    53,'1 ',1,   1,   1,    93.150,     4.050,     0.000,     0.000,     0.000,     0.000,   1
    54,'1 ',1,   1,   1,    13.500,     1.350,     0.000,     0.000,     0.000,     0.000,   1
    55,'1 ',1,   1,   1,    29.700,    13.500,     0.000,     0.000,     0.000,     0.000,   1
    57,'1 ',1,   1,   1,   132.300,    27.000,     0.000,     0.000,     0.000,     0.000,   1
    58,'1 ',1,   1,   1,    18.900,     1.350,     0.000,     0.000,     0.000,     0.000,   1
    59,'1 ',1,   1,   1,   294.300,   143.100,     0.000,     0.000,     0.000,     0.000,   1
    61,'1 ',1,   1,   1,   306.450,   148.500,     0.000,     0.000,     0.000,     0.000,   1
    63,'1 ',1,   1,   1,    94.500,    40.500,     0.000,     0.000,     0.000,     0.000,   1
    70,'1 ',1,   1,   1,    75.600,    27.000,     0.000,     0.000,     0.000,     0.000,   1
    71,'1 ',1,   1,   1,   156.600,    51.300,     0.000,     0.000,     0.000,     0.000,   1
    72,'1 ',1,   1,   1,    76.950,    25.650,     0.000,     0.000,     0.000,     0.000,   1
    73,'1 ',1,   1,   1,   302.400,    95.850,     0.000,     0.000,     0.000,     0.000,   1
    76,'1 ',1,   1,   1,   280.800,   144.450,     0.000,     0.000,     0.000,     0.000,   1
    77,'1 ',1,   1,   1,    99.900,    37.800,     0.000,     0.000,     0.000,     0.000,   1
    79,'1 ',1,   1,   1,    64.800,    18.900,     0.000,     0.000,     0.000,     0.000,   1
    80,'1 ',1,   1,   1,    37.800,     9.450,     0.000,     0.000,     0.000,     0.000,   1
    84,'1 ',1,   1,   1,    49.950,    17.550,     0.000,     0.000,     0.000,     0.000,   1
    89,'1 ',1,   1,   1,    59.670,     0.000,     0.000,     0.000,     0.000,     0.000,   1
    90,'1 ',1,   1,   1,    89.100,     0.000,     0.000,     0.000,     0.000,     0.000,   1
    91,'1 ',1,   1,   1,    23.490,     0.000,     0.000,     0.000,     0.000,     0.000,   1
    92,'1 ',1,   1,   1,    21.330,     0.000,     0.000,     0.000,     0.000,     0.000,   1
    94,'1 ',1,   1,   1,    81.405,     0.000,     0.000,     0.000,     0.000,     0.000,   1
    97,'1 ',1,   1,   1,    53.865,     0.000,     0.000,     0.000,     0.000,     0.000,   1
    98,'1 ',1,   1,   1,    90.045,     0.000,     0.000,     0.000,     0.000,     0.000,   1
    99,'1 ',1,   1,   1,   112.725,     0.000,     0.000,     0.000,     0.000,     0.000,   1
   102,'1 ',1,   1,   1,   105.030,     0.000,     0.000,     0.000,     0.000,     0.000,   1
   103,'1 ',1,   1,   1,    43.200,     0.000,     0.000,     0.000,     0.000,     0.000,   1
   104,'1 ',1,   1,   1,    11.610,     0.000,     0.000,     0.000,     0.000,     0.000,   1
   105,'1 ',1,   1,   1,    66.960,     0.000,     0.000,     0.000,     0.000,     0.000,   1
   107,'1 ',1,   1,   1,     6.210,     0.000,     0.000,     0.000,     0.000,     0.000,   1
   108,'1 ',1,   1,   1,   151.335,     0.000,     0.000,     0.000,     0.000,     0.000,   1
   109,'1 ',1,   1,   1,    41.445,     0.000,     0.000,     0.000,     0.000,     0.000,   1
   110,'1 ',1,   1,   1,    85.050,     0.000,     0.000,     0.000,     0.000,     0.000,   1
   112,'1 ',1,   1,   1,    26.460,     0.000,     0.000,     0.000,     0.000,     0.000,   1
   113,'1 ',1,   1,   1,    35.370,     0.000,     0.000,     0.000,     0.000,     0.000,   1
   114,'1 ',1,   1,   1,    24.570,     0.000,     0.000,     0.000,     0.000,     0.000,   1
   118,'1 ',1,   2,   2,    19.035,   877.500,     0.000,     0.000,     0.000,     0.000,   1
   119,'1 ',1,   2,   2,   135.405,    46.440,     0.000,     0.000,     0.000,     0.000,   1
   121,'1 ',1,   2,   2,   722.250,    74.250,     0.000,     0.000,     0.000,     0.000,   1
   122,'1 ',1,   2,   2,   309.285,    15.930,     0.000,     0.000,     0.000,     0.000,   1
   123,'1 ',1,   2,   2,   105.300,     1.890,     0.000,     0.000,     0.000,     0.000,   1
   124,'1 ',1,   2,   2,   373.140,    80.055,     0.000,     0.000,     0.000,     0.000,   1
   125,'1 ',1,   2,   2,   694.980,   111.645,     0.000,     0.000,     0.000,     0.000,   1
   126,'1 ',1,   2,   2,    78.165,     6.885,     0.000,     0.000,     0.000,     0.000,   1
   127,'1 ',1,   2,   2,   514.080,    49.950,     0.000,     0.000,     0.000,     0.000,   1
   135,'1 ',1,   2,   2,   228.420,    56.160,     0.000,     0.000,     0.000,     0.000,   1
   136,'1 ',1,   2,   2,    74.520,    24.570,     0.000,     0.000,     0.000,     0.000,   1
   137,'1 ',1,   2,   2,   369.360,   134.730,     0.000,     0.000,     0.000,     0.000,   1
   138,'1 ',1,   2,   2,  1116.045,   182.520,     0.000,     0.000,     0.000,     0.000,   1
   139,'1 ',1,   2,   2,   803.250,   112.455,     0.000,     0.000,     0.000,     0.000,   1
   140,'1 ',1,   2,   2,   523.395,   154.845,     0.000,     0.000,     0.000,     0.000,   1
   141,'1 ',1,   2,   2,   195.750,    78.300,     0.000,     0.000,     0.000,     0.000,   1
   142,'1 ',1,   2,   2,    76.275,    33.075,     0.000,     0.000,     0.000,     0.000,   1
   143,'1 ',1,   2,   2,   120.825,    47.925,     0.000,     0.000,     0.000,     0.000,   1
   145,'1 ',1,   2,   2,    32.400,    18.900,     0.000,     0.000,     0.000,     0.000,   1
   148,'1 ',1,   2,   2,    85.050,    33.750,     0.000,     0.000,     0.000,     0.000,   1
   152,'1 ',1,   2,   2,    22.950,    12.150,     0.000,     0.000,     0.000,     0.000,   1
   154,'1 ',1,   2,   2,    94.500,     6.750,     0.000,     0.000,     0.000,     0.000,   1
   155,'1 ',1,   2,   2,   270.000,    67.500,     0.000,     0.000,     0.000,     0.000,   1
   156,'1 ',1,   2,   2,   101.250,    67.500,     0.000,     0.000,     0.000,     0.000,   1
   157,'1 ',1,   2,   2,   166.725,    32.805,     0.000,     0.000,     0.000,     0.000,   1
   159,'1 ',1,   2,   2,    44.550,    22.275,     0.000,     0.000,     0.000,     0.000,   1
   161,'1 ',1,   2,   2,    47.250,    20.250,     0.000,     0.000,     0.000,     0.000,   1
   162,'1 ',1,   2,   2,   114.750,    32.400,     0.000,     0.000,     0.000,     0.000,   1
   163,'1 ',1,   2,   2,     0.000,     0.540,     0.000,     0.000,     0.000,     0.000,   1
   167,'1 ',1,   2,   2,   404.865,   129.195,     0.000,     0.000,     0.000,     0.000,   1
   170,'1 ',1,   2,   2,   650.430,   276.750,     0.000,     0.000,     0.000,     0.000,   1
   171,'1 ',1,   2,   2,  1030.860,   392.985,     0.000,     0.000,     0.000,     0.000,   1
   172,'1 ',1,   2,   2,    35.775,     0.000,     0.000,     0.000,     0.000,     0.000,   1
   173,'1 ',1,   2,   2,   220.725,    58.050,     0.000,     0.000,     0.000,     0.000,   1
   175,'1 ',1,   2,   2,   237.600,   112.050,     0.000,     0.000,     0.000,     0.000,   1
   176,'1 ',1,   2,   2,     6.750,     5.400,     0.000,     0.000,     0.000,     0.000,   1
   177,'1 ',1,   2,   2,    37.800,    16.200,     0.000,     0.000,     0.000,     0.000,   1
   178,'1 ',1,   2,   2,   576.990,   234.360,     0.000,     0.000,     0.000,     0.000,   1
   179,'1 ',1,   2,   2,    99.900,    39.150,     0.000,     0.000,     0.000,     0.000,   1
   180,'1 ',1,   2,   2,    93.825,    66.555,     0.000,     0.000,     0.000,     0.000,   1
   181,'1 ',1,   2,   2,    99.090,     0.000,     0.000,     0.000,     0.000,     0.000,   1
   182,'1 ',1,   2,   2,   324.945,   120.150,     0.000,     0.000,     0.000,     0.000,   1
   183,'1 ',1,   2,   2,    54.000,     5.400,     0.000,     0.000,     0.000,     0.000,   1
   184,'1 ',1,   2,   2,   184.680,    22.410,     0.000,     0.000,     0.000,     0.000,   1
   186,'1 ',1,   2,   2,    80.730,    32.805,     0.000,     0.000,     0.000,     0.000,   1
   187,'1 ',1,   2,   2,    80.730,    32.805,     0.000,     0.000,     0.000,     0.000,   1
   188,'1 ',1,   2,   2,   246.510,    58.860,     0.000,     0.000,     0.000,     0.000,   1
   189,'1 ',1,   3,   3,     9.450,     2.700,     0.000,     0.000,     0.000,     0.000,   1
   191,'1 ',1,   3,   3,   660.150,    71.550,     0.000,     0.000,     0.000,     0.000,   1
   192,'1 ',1,   3,   3,  1080.000,    97.200,     0.000,     0.000,     0.000,     0.000,   1
   196,'1 ',1,   3,   3,    13.500,     4.050,     0.000,     0.000,     0.000,     0.000,   1
   197,'1 ',1,   3,   3,    58.050,    18.900,     0.000,     0.000,     0.000,     0.000,   1
   198,'1 ',1,   3,   3,    86.400,    28.350,     0.000,     0.000,     0.000,     0.000,   1
   199,'1 ',1,   3,   3,    47.250,    16.200,     0.000,     0.000,     0.000,     0.000,   1
   200,'1 ',1,   3,   3,    36.450,    16.200,     0.000,     0.000,     0.000,     0.000,   1
   201,'1 ',1,   1,   1,    55.350,    18.900,     0.000,     0.000,     0.000,     0.000,   1
   202,'1 ',1,   3,   3,    51.300,    17.550,     0.000,     0.000,     0.000,     0.000,   1
   203,'1 ',1,   3,   3,    56.700,    18.900,     0.000,     0.000,     0.000,     0.000,   1
   204,'1 ',1,   3,   3,    97.200,    32.400,     0.000,     0.000,     0.000,     0.000,   1
   205,'1 ',1,   3,   3,     0.000,    -6.750,     0.000,     0.000,     0.000,     0.000,   1
   206,'1 ',1,   3,   3,    16.200,     2.700,     0.000,     0.000,     0.000,     0.000,   1
   207,'1 ',1,   1,   1,   -28.350,   -19.170,     0.000,     0.000,     0.000,     0.000,   1
   208,'1 ',1,   3,   3,     9.450,     2.700,     0.000,     0.000,     0.000,     0.000,   1
   209,'1 ',1,   3,   3,    51.300,    17.550,     0.000,     0.000,     0.000,     0.000,   1
   211,'1 ',1,   3,   3,   129.600,     9.450,     0.000,     0.000,     0.000,     0.000,   1
   214,'1 ',1,   3,   3,    29.700,    21.600,     0.000,     0.000,     0.000,     0.000,   1
   215,'1 ',1,   3,   3,    63.450,    35.100,     0.000,     0.000,     0.000,     0.000,   1
   216,'1 ',1,   3,   3,   237.600,   141.750,     0.000,     0.000,     0.000,     0.000,   1
   217,'1 ',1,   3,   3,   135.000,   101.250,     0.000,     0.000,     0.000,     0.000,   1
   218,'1 ',1,   3,   3,   176.850,   129.600,     0.000,     0.000,     0.000,     0.000,   1
   220,'1 ',1,   3,   3,   384.750,   135.000,     0.000,     0.000,     0.000,     0.000,   1
   221,'1 ',1,   3,   3,   230.850,    94.500,     0.000,     0.000,     0.000,     0.000,   1
   222,'1 ',1,   3,   3,   442.800,   253.800,     0.000,     0.000,     0.000,     0.000,   1
   223,'1 ',1,   3,   3,   577.800,   313.200,     0.000,     0.000,     0.000,     0.000,   1
   224,'1 ',1,   3,   3,   233.550,   133.650,     0.000,     0.000,     0.000,     0.000,   1
   225,'1 ',1,   3,   3,   553.500,    54.000,     0.000,     0.000,     0.000,     0.000,   1
   227,'1 ',1,   3,   3,   726.300,   498.150,     0.000,     0.000,     0.000,     0.000,   1
   228,'1 ',1,   3,   3,   301.050,   199.800,     0.000,     0.000,     0.000,     0.000,   1
   229,'1 ',1,   3,   3,   129.600,    62.100,     0.000,     0.000,     0.000,     0.000,   1
   231,'1 ',1,   3,   3,   214.650,   144.450,     0.000,     0.000,     0.000,     0.000,   1
   232,'1 ',1,   3,   3,   604.800,   193.050,     0.000,     0.000,     0.000,     0.000,   1
   233,'1 ',1,   3,   3,   545.400,   286.200,     0.000,     0.000,     0.000,     0.000,   1
   234,'1 ',1,   3,   3,   772.200,   329.400,     0.000,     0.000,     0.000,     0.000,   1
   235,'1 ',1,   3,   3,   363.150,   211.950,     0.000,     0.000,     0.000,     0.000,   1
   238,'1 ',1,   3,   3,   344.250,   201.150,     0.000,     0.000,     0.000,     0.000,   1
   243,'1 ',1,   3,   3,    10.800,     4.050,     0.000,     0.000,     0.000,     0.000,   1
   245,'1 ',1,   3,   3,    82.350,    40.500,     0.000,     0.000,     0.000,     0.000,   1
   246,'1 ',1,   3,   3,   103.950,    44.550,     0.000,     0.000,     0.000,     0.000,   1
   247,'1 ',1,   3,   3,    82.350,    40.500,     0.000,     0.000,     0.000,     0.000,   1
   248,'1 ',1,   3,   3,    39.150,    18.900,     0.000,     0.000,     0.000,     0.000,   1
   249,'1 ',1,   3,   3,    39.150,    18.900,     0.000,     0.000,     0.000,     0.000,   1
   250,'1 ',1,   3,   3,   -31.050,   -22.950,     0.000,     0.000,     0.000,     0.000,   1
   281,'1 ',1,   3,   3,   -44.685,   -39.690,     0.000,     0.000,     0.000,     0.000,   1
   319,'1 ',1,   1,   1,   156.330,   -32.400,     0.000,     0.000,     0.000,     0.000,   1
   320,'1 ',1,   1,   1,     3.240,   -17.010,     0.000,     0.000,     0.000,     0.000,   1
   322,'1 ',1,   1,   1,     3.240,    -5.265,     0.000,     0.000,     0.000,     0.000,   1
   323,'1 ',1,   1,   1,   -20.115,    35.775,     0.000,     0.000,     0.000,     0.000,   1
   324,'1 ',1,   1,   1,    33.345,    -1.620,     0.000,     0.000,     0.000,     0.000,   1
   526,'1 ',1,   1,   1,   196.155,   -47.115,     0.000,     0.000,     0.000,     0.000,   1
   528,'1 ',1,   1,   1,    37.935,   -27.675,     0.000,     0.000,     0.000,     0.000,   1
   531,'1 ',1,   1,   1,    18.900,     3.375,     0.000,     0.000,     0.000,     0.000,   1
   552,'1 ',1,   1,   1,   -14.985,    -1.890,     0.000,     0.000,     0.000,     0.000,   1
   562,'1 ',1,   1,   1,    68.175,    23.490,     0.000,     0.000,     0.000,     0.000,   1
   609,'1 ',1,   1,   1,    39.960,     0.810,     0.000,     0.000,     0.000,     0.000,   1
   664,'1 ',1,   3,   3,  -153.495,   103.545,     0.000,     0.000,     0.000,     0.000,   1
  1190,'1 ',1,   1,   1,   135.418,    39.380,     0.000,     0.000,     0.000,     0.000,   1
  1200,'1 ',1,   1,   1,  -135.000,    46.129,     0.000,     0.000,     0.000,     0.000,   1
  9003,'1 ',1,   1,   9,     3.659,     1.269,     0.000,     0.000,     0.000,     0.000,   1
  9004,'1 ',1,   1,   9,     1.161,     0.378,     0.000,     0.000,     0.000,     0.000,   1
  9021,'1 ',1,   1,   9,     6.413,     2.106,     0.000,     0.000,     0.000,     0.000,   1
  9022,'1 ',1,   1,   9,     2.066,     0.715,     0.000,     0.000,     0.000,     0.000,   1
  9024,'1 ',1,   1,   9,     1.823,     0.635,     0.000,     0.000,     0.000,     0.000,   1
  9025,'1 ',1,   1,   9,     0.608,     0.216,     0.000,     0.000,     0.000,     0.000,   1
  9026,'1 ',1,   1,   9,     0.608,     0.216,     0.000,     0.000,     0.000,     0.000,   1
  9031,'1 ',1,   1,   9,     2.484,     0.864,     0.000,     0.000,     0.000,     0.000,   1
  9032,'1 ',1,   1,   9,     1.877,     0.648,     0.000,     0.000,     0.000,     0.000,   1
  9033,'1 ',1,   1,   9,     2.551,     0.877,     0.000,     0.000,     0.000,     0.000,   1
  9034,'1 ',1,   1,   9,     2.092,     0.729,     0.000,     0.000,     0.000,     0.000,   1
  9035,'1 ',1,   1,   9,     2.241,     0.783,     0.000,     0.000,     0.000,     0.000,   1
  9036,'1 ',1,   1,   9,     4.090,     1.350,     0.000,     0.000,     0.000,     0.000,   1
  9037,'1 ',1,   1,   9,     2.511,     0.864,     0.000,     0.000,     0.000,     0.000,   1
  9038,'1 ',1,   1,   9,     3.483,     1.201,     0.000,     0.000,     0.000,     0.000,   1
  9041,'1 ',1,   1,   9,     1.363,     0.472,     0.000,     0.000,     0.000,     0.000,   1
  9042,'1 ',1,   1,   9,     1.094,     0.378,     0.000,     0.000,     0.000,     0.000,   1
  9043,'1 ',1,   1,   9,     2.160,     0.702,     0.000,     0.000,     0.000,     0.000,   1
  9052,'1 ',1,   1,   9,    40.500,    31.050,     0.000,     0.000,     0.000,     0.000,   1
  9071,'1 ',1,   1,   9,     1.377,     0.472,     0.000,     0.000,     0.000,     0.000,   1
  9072,'1 ',1,   1,   9,     1.377,     0.472,     0.000,     0.000,     0.000,     0.000,   1
  9121,'1 ',1,   1,   9,     5.130,     1.688,     0.000,     0.000,     0.000,     0.000,   1
  9533,'1 ',1,   1,   9,     1.607,     0.553,     0.000,     0.000,     0.000,     0.000,   1
 0 /End of Load data, Begin Generator data
 10000,'1 ',    -6.750,   145.108,   159.619,   -10.000,1.01530,     0,   174.318,   0.00140,   0.12000,   0.00000,   0.00000,1.00000,1,  100.0,  9999.000, -9999.000,   1,1.0000
 10001,'1 ',    -6.750,    66.030,    72.633,   -20.000,1.02050,     0,    79.649,   0.00140,   0.12000,   0.00000,   0.00000,1.00000,1,  100.0,  9999.000, -9999.000,   1,1.0000
 10002,'1 ',   -13.500,   223.221,   245.543,   -20.000,1.00100,     0,   268.355,   0.00140,   0.12000,   0.00000,   0.00000,1.00000,1,  100.0,  9999.000, -9999.000,   1,1.0000
 10003,'1 ',     0.000,   121.285,   133.414,   -25.000,0.95830,     0,   145.542,   0.00140,   0.12000,   0.00000,   0.00000,1.00000,1,  100.0,  9999.000, -9999.000,   1,1.0000
 10004,'1 ',     0.000,   247.377,   272.115,    12.000,0.96320,     0,   296.853,   0.00140,   0.12000,   0.00000,   0.00000,1.00000,1,  100.0,  9999.000, -9999.000,   1,1.0000
 10005,'1 ',   510.000,   189.010,   240.000,  -240.000,1.02500,     0,   835.000,   0.00190,   0.33900,   0.00000,   0.00000,1.00000,1,  100.0,  9999.000, -9999.000,   1,1.0000
 10006,'1 ',   210.800,    72.694,    96.000,   -11.000,1.05200,     0,   270.000,   0.00160,   0.18500,   0.00000,   0.00000,1.00000,1,  100.0,  9999.000, -9999.000,   1,1.0000
 10007,'1 ',   394.400,    75.438,   153.000,  -153.000,1.05200,     0,   410.000,   0.00190,   0.22840,   0.00000,   0.00000,1.00000,1,  100.0,  9999.000, -9999.000,   1,1.0000
 10008,'1 ',    92.480,    10.285,    56.000,   -30.000,1.00000,     0,   125.000,   0.00400,   0.13400,   0.00000,   0.00000,1.00000,1,  100.0,  9999.000, -9999.000,   1,1.0000
 10009,'1 ',   159.120,   105.732,   116.306,   -24.000,0.99000,     0,   270.000,   0.00160,   0.18500,   0.00000,   0.00000,1.00000,1,  100.0,  9999.000, -9999.000,   1,1.0000
 10010,'1 ',  2624.800,  2806.995,  3087.690,  -500.000,1.04350,     0,  4611.619,   0.00100,   0.19300,   0.00000,   0.00000,1.00000,1,  100.0,  9999.000, -9999.000,   1,1.0000
 10011,'1 ',   326.400,   543.052,   597.355,   -60.000,1.02330,     0,   760.312,   0.00190,   0.22840,   0.00000,   0.00000,1.00000,1,  100.0,  9999.000, -9999.000,   1,1.0000
 10012,'1 ',     0.000,   868.454,   955.296,   -25.000,1.01030,     0,  1042.141,   0.00140,   0.12000,   0.00000,   0.00000,1.00000,1,  100.0,  9999.000, -9999.000,   1,1.0000
 10013,'1 ', -1248.791,   649.815,   714.797,  -125.000,1.05500,     0,  1689.291,   0.00100,   0.19300,   0.00000,   0.00000,1.00000,1,  100.0,  9999.000, -9999.000,   1,1.0000
 10014,'1 ',   382.160,   147.228,   161.951,   -50.000,1.05100,     0,   410.000,   0.00190,   0.22840,   0.00000,   0.00000,1.00000,1,  100.0,  9999.000, -9999.000,   1,1.0000
 10015,'1 ',   946.560,   338.832,   372.715,  -100.000,1.04350,     0,  1206.452,   0.00100,   0.19300,   0.00000,   0.00000,1.00000,1,  100.0,  9999.000, -9999.000,   1,1.0000
 10016,'1 ',   114.240,   109.273,   120.200,   -15.000,1.05280,     0,   189.704,   0.00400,   0.13400,   0.00000,   0.00000,1.00000,1,  100.0,  9999.000, -9999.000,   1,1.0000
 10017,'1 ',   295.120,   -42.525,   100.000,   -50.000,1.05280,     0,   410.000,   0.00190,   0.22840,   0.00000,   0.00000,1.00000,1,  100.0,  9999.000, -9999.000,   1,1.0000
 10018,'1 ',   140.080,    71.450,    78.595,   -25.000,1.07350,     0,   270.000,   0.00160,   0.18500,   0.00000,   0.00000,1.00000,1,  100.0,  9999.000, -9999.000,   1,1.0000
 10019,'1 ',   505.920,    10.535,   175.000,   -50.000,1.05350,     0,   835.000,   0.00190,   0.33900,   0.00000,   0.00000,1.00000,1,  100.0,  9999.000, -9999.000,   1,1.0000
 10020,'1 ',   293.760,    27.179,    90.000,   -50.000,1.04350,     0,   410.000,   0.00190,   0.22840,   0.00000,   0.00000,1.00000,1,  100.0,  9999.000, -9999.000,   1,1.0000
 10021,'1 ',     0.000,   163.326,   179.659,   -10.000,0.96300,     0,   195.992,   0.00140,   0.12000,   0.00000,   0.00000,1.00000,1,  100.0,  9999.000, -9999.000,   1,1.0000
 10022,'1 ',   278.800,   281.475,   309.623,   -40.000,0.92900,     0,   410.000,   0.00190,   0.22840,   0.00000,   0.00000,1.00000,1,  100.0,  9999.000, -9999.000,   1,1.0000
 10023,'1 ',     0.000,   534.971,   588.468,   -50.000,0.98290,     0,   641.965,   0.00140,   0.12000,   0.00000,   0.00000,1.00000,1,  100.0,  9999.000, -9999.000,   1,1.0000
 10024,'1 ',   310.080,    69.058,    90.000,   -45.000,1.05220,     0,   410.000,   0.00190,   0.22840,   0.00000,   0.00000,1.00000,1,  100.0,  9999.000, -9999.000,   1,1.0000
 10025,'1 ',   114.240,   119.820,   131.802,   -15.000,1.00770,     0,   270.000,   0.00160,   0.18500,   0.00000,   0.00000,1.00000,1,  100.0,  9999.000, -9999.000,   1,1.0000
 10026,'1 ',   272.000,   100.646,   110.710,   -50.000,1.05220,     0,   410.000,   0.00190,   0.22840,   0.00000,   0.00000,1.00000,1,  100.0,  9999.000, -9999.000,   1,1.0000
 10027,'1 ',  1632.000,   495.798,   545.378,  -100.000,1.06500,     0,  1911.000,   0.00100,   0.19300,   0.00000,   0.00000,1.00000,1,  100.0,  9999.000, -9999.000,   1,1.0000
 10028,'1 ',  1632.000,   600.696,   660.766,  -100.000,1.06500,     0,  1911.000,   0.00100,   0.19300,   0.00000,   0.00000,1.00000,1,  100.0,  9999.000, -9999.000,   1,1.0000
 10029,'1 ',   646.000,   468.541,   515.395,  -300.000,1.05510,     0,   835.000,   0.00190,   0.33900,   0.00000,   0.00000,1.00000,1,  100.0,  9999.000, -9999.000,   1,1.0000
 10030,'1 ',  2683.280,  1603.877,  1764.265, -1000.000,1.04350,     0,  3751.303,   0.00100,   0.19300,   0.00000,   0.00000,1.00000,1,  100.0,  9999.000, -9999.000,   1,1.0000
 10031,'1 ',   576.640,   196.558,   260.000,  -260.000,1.01500,     0,   835.000,   0.00190,   0.33900,   0.00000,   0.00000,1.00000,1,  100.0,  9999.000, -9999.000,   1,1.0000
 10032,'1 ',   369.920,    65.984,   150.000,  -150.000,1.01000,     0,   512.000,   0.00400,   0.20000,   0.00000,   0.00000,1.00000,1,  100.0,  9999.000, -9999.000,   1,1.0000
 10033,'1 ',   136.000,   177.291,   195.021,   -60.000,1.00800,     0,   270.000,   0.00160,   0.18500,   0.00000,   0.00000,1.00000,1,  100.0,  9999.000, -9999.000,   1,1.0000
 10034,'1 ',   612.000,   435.225,   478.748,  -320.000,1.00000,     0,   835.000,   0.00190,   0.33900,   0.00000,   0.00000,1.00000,1,  100.0,  9999.000, -9999.000,   1,1.0000
 10035,'1 ',   340.000,   230.830,   300.000,  -300.000,1.05000,     0,   493.144,   0.00190,   0.22840,   0.00000,   0.00000,1.00000,1,  100.0,  9999.000, -9999.000,   1,1.0000
 10036,'1 ',   412.080,   414.081,   455.489,  -300.000,1.00000,     0,   701.023,   0.00400,   0.20000,   0.00000,   0.00000,1.00000,1,  100.0,  9999.000, -9999.000,   1,1.0000
 10037,'1 ',   469.200,   100.404,   250.000,  -250.000,1.04000,     0,   835.000,   0.00190,   0.33900,   0.00000,   0.00000,1.00000,1,  100.0,  9999.000, -9999.000,   1,1.0000
 10038,'1 ',   408.000,   234.806,   500.000,  -500.000,1.00000,     0,   512.000,   0.00400,   0.20000,   0.00000,   0.00000,1.00000,1,  100.0,  9999.000, -9999.000,   1,1.0000
 10039,'1 ',   816.000,   398.732,   438.606,  -300.000,1.01650,     0,   911.000,   0.00100,   0.19300,   0.00000,   0.00000,1.00000,1,  100.0,  9999.000, -9999.000,   1,1.0000
 10040,'1 ',   340.000,   365.107,   401.618,  -200.000,1.01000,     0,   598.682,   0.00190,   0.22840,   0.00000,   0.00000,1.00000,1,  100.0,  9999.000, -9999.000,   1,1.0000
 10041,'1 ',   748.000,    83.181,   400.000,  -400.000,1.00000,     0,   911.000,   0.00100,   0.19300,   0.00000,   0.00000,1.00000,1,  100.0,  9999.000, -9999.000,   1,1.0000
 10042,'1 ',   781.701,    44.654,   600.000,  -600.000,1.05000,     0,   911.000,   0.00100,   0.19300,   0.00000,   0.00000,1.00000,1,  100.0,  9999.000, -9999.000,   1,1.0000
 10043,'1 ',   231.200,   139.166,   153.082,    40.000,0.99300,     0,   410.000,   0.00190,   0.22840,   0.00000,   0.00000,1.00000,1,  100.0,  9999.000, -9999.000,   1,1.0000
 10044,'1 ',   114.240,    70.062,    80.000,    40.000,1.01000,     0,   270.000,   0.00160,   0.18500,   0.00000,   0.00000,1.00000,1,  100.0,  9999.000, -9999.000,   1,1.0000
 10045,'1 ',   635.120,   239.299,   263.229,  -210.000,1.05070,     0,   835.000,   0.00190,   0.33900,   0.00000,   0.00000,1.00000,1,  100.0,  9999.000, -9999.000,   1,1.0000
 10046,'1 ',   847.280,   156.647,   280.000,  -280.000,1.05070,     0,   911.000,   0.00100,   0.19300,   0.00000,   0.00000,1.00000,1,  100.0,  9999.000, -9999.000,   1,1.0000
 10047,'1 ',  1645.600,   661.662,   727.828,  -420.000,1.03230,     0,  2128.367,   0.00100,   0.19300,   0.00000,   0.00000,1.00000,1,  100.0,  9999.000, -9999.000,   1,1.0000
 10048,'1 ',   318.240,    83.690,   100.000,  -100.000,1.01450,     0,   410.000,   0.00190,   0.22840,   0.00000,   0.00000,1.00000,1,  100.0,  9999.000, -9999.000,   1,1.0000
 10049,'1 ',   505.920,   261.037,   287.141,  -224.000,1.05070,     0,   835.000,   0.00190,   0.33900,   0.00000,   0.00000,1.00000,1,  100.0,  9999.000, -9999.000,   1,1.0000
 10050,'1 ',   448.800,   538.072,   591.879,     0.000,1.05070,     0,   835.000,   0.00190,   0.33900,   0.00000,   0.00000,1.00000,1,  100.0,  9999.000, -9999.000,   1,1.0000
 10051,'1 ',   251.600,    25.260,   120.000,     0.000,1.05070,     0,   410.000,   0.00190,   0.22840,   0.00000,   0.00000,1.00000,1,  100.0,  9999.000, -9999.000,   1,1.0000
 10052,'1 ',   557.600,   152.764,   224.000,  -224.000,1.02900,     0,   835.000,   0.00190,   0.33900,   0.00000,   0.00000,1.00000,1,  100.0,  9999.000, -9999.000,   1,1.0000
 10053,'1 ',   680.000,   315.437,   346.981,  -200.000,1.05000,     0,   835.000,   0.00190,   0.33900,   0.00000,   0.00000,1.00000,1,  100.0,  9999.000, -9999.000,   1,1.0000
 10054,'1 ',    50.320,    73.831,    81.214,     0.000,1.01450,     0,   125.000,   0.00400,   0.13400,   0.00000,   0.00000,1.00000,1,  100.0,  9999.000, -9999.000,   1,1.0000
 10055,'1 ',   866.364,   186.193,   204.814,     0.000,1.05070,     0,  1063.382,   0.00190,   0.33900,   0.00000,   0.00000,1.00000,1,  100.0,  9999.000, -9999.000,   1,1.0000
 10056,'1 ',    61.200,    49.711,    54.682,     0.000,0.99670,     0,   125.000,   0.00400,   0.13400,   0.00000,   0.00000,1.00000,1,  100.0,  9999.000, -9999.000,   1,1.0000
 10057,'1 ',   224.400,   129.256,   142.181,   -90.000,1.02120,     0,   410.000,   0.00190,   0.22840,   0.00000,   0.00000,1.00000,1,  100.0,  9999.000, -9999.000,   1,1.0000
 10058,'1 ',   544.000,   233.361,   256.698,  -150.000,1.01450,     0,   835.000,   0.00190,   0.33900,   0.00000,   0.00000,1.00000,1,  100.0,  9999.000, -9999.000,   1,1.0000
 10059,'1 ',   544.000,   226.047,   248.652,     0.000,1.00170,     0,   835.000,   0.00190,   0.33900,   0.00000,   0.00000,1.00000,1,  100.0,  9999.000, -9999.000,   1,1.0000
 10060,'1 ',   157.760,   135.352,   148.887,     0.000,0.98930,     0,   270.000,   0.00160,   0.18500,   0.00000,   0.00000,1.00000,1,  100.0,  9999.000, -9999.000,   1,1.0000
 10061,'1 ',  1757.120,   631.414,   694.556,  -100.000,1.05070,     0,  2240.550,   0.00100,   0.19300,   0.00000,   0.00000,1.00000,1,  100.0,  9999.000, -9999.000,   1,1.0000
 10062,'1 ',   952.000,   432.338,   475.572,  -125.000,1.05070,     0,  1254.686,   0.00100,   0.19300,   0.00000,   0.00000,1.00000,1,  100.0,  9999.000, -9999.000,   1,1.0000
 10063,'1 ',   752.080,   374.354,   411.789,  -200.000,1.01450,     0,   911.000,   0.00100,   0.19300,   0.00000,   0.00000,1.00000,1,  100.0,  9999.000, -9999.000,   1,1.0000
 10064,'1 ',    -5.670,    10.658,    11.724,    -2.000,0.99450,     0,    25.000,   0.00140,   0.12000,   0.00000,   0.00000,1.00000,1,  100.0,  9999.000, -9999.000,   1,1.0000
 10065,'1 ',   -48.344,    29.832,    32.815,   -17.350,1.00000,     0,   125.000,   0.00400,   0.13400,   0.00000,   0.00000,1.00000,1,  100.0,  9999.000, -9999.000,   1,1.0000
 10066,'1 ',   -35.748,    24.722,    27.194,   -12.800,1.00000,     0,   125.000,   0.00400,   0.13400,   0.00000,   0.00000,1.00000,1,  100.0,  9999.000, -9999.000,   1,1.0000
 10067,'1 ',    68.000,    50.161,    55.177,   -38.000,1.00000,     0,   125.000,   0.00400,   0.13400,   0.00000,   0.00000,1.00000,1,  100.0,  9999.000, -9999.000,   1,1.0000
 10068,'1 ',    10.880,     9.321,    10.253,    -6.000,1.00000,     0,    25.000,   0.00140,   0.12000,   0.00000,   0.00000,1.00000,1,  100.0,  9999.000, -9999.000,   1,1.0000
 0 /End of Generator data, Begin Branch data
     1,      5,'1 ',   0.00100,   0.00600,   0.00000,    0.00,    0.00,    0.00,  0.00000,  0.00000,  0.00000,  0.00000,1,   0.00,   1,1.0000
     2,      6,'1 ',   0.00100,   0.00900,   0.00000,    0.00,    0.00,    0.00,  0.00000,  0.00000,  0.00000,  0.00000,1,   0.00,   1,1.0000
     2,      8,'1 ',   0.00600,   0.02700,   0.05400,    0.00,    0.00,    0.00,  0.00000,  0.00000,  0.00000,  0.00000,1,   0.00,   1,1.0000
     3,      7,'1 ',   0.00000,   0.00300,   0.00000,    0.00,    0.00,    0.00,  0.00000,  0.00000,  0.00000,  0.00000,1,   0.00,   1,1.0000
     3,     19,'1 ',   0.00800,   0.06900,   0.13900,    0.00,    0.00,    0.00,  0.00000,  0.00000,  0.00000,  0.00000,1,   0.00,   1,1.0000
     3,    150,'1 ',   0.00100,   0.00700,   0.00000,    0.00,    0.00,    0.00,  0.00000,  0.00000,  0.00000,  0.00000,1,   0.00,   1,1.0000
     4,     16,'1 ',   0.00200,   0.01900,   1.12700,    0.00,    0.00,    0.00,  0.00000,  0.00000,  0.00000,  0.00000,1,   0.00,   1,1.0000
     5,      9,'1 ',   0.00600,   0.02900,   0.01800,    0.00,    0.00,    0.00,  0.00000,  0.00000,  0.00000,  0.00000,1,   0.00,   1,1.0000
     7,     12,'1 ',   0.00100,   0.00900,   0.07000,    0.00,    0.00,    0.00,  0.00000,  0.00000,  0.00000,  0.00000,1,   0.00,   1,1.0000
     7,    131,'1 ',   0.00100,   0.00700,   0.01400,    0.00,    0.00,    0.00,  0.00000,  0.00000,  0.00000,  0.00000,1,   0.00,   1,1.0000
     8,     11,'1 ',   0.01300,   0.05950,   0.03300,    0.00,    0.00,    0.00,  0.00000,  0.00000,  0.00000,  0.00000,1,   0.00,   1,1.0000
     8,     14,'1 ',   0.01300,   0.04200,   0.08100,    0.00,    0.00,    0.00,  0.00000,  0.00000,  0.00000,  0.00000,1,   0.00,   1,1.0000
     9,     11,'1 ',   0.00600,   0.02700,   0.01300,    0.00,    0.00,    0.00,  0.00000,  0.00000,  0.00000,  0.00000,1,   0.00,   1,1.0000
    11,     13,'1 ',   0.00800,   0.03400,   0.01800,    0.00,    0.00,    0.00,  0.00000,  0.00000,  0.00000,  0.00000,1,   0.00,   1,1.0000
    12,     21,'1 ',   0.00200,   0.01500,   0.11800,    0.00,    0.00,    0.00,  0.00000,  0.00000,  0.00000,  0.00000,1,   0.00,   1,1.0000
    13,     20,'1 ',   0.00600,   0.03400,   0.01600,    0.00,    0.00,    0.00,  0.00000,  0.00000,  0.00000,  0.00000,1,   0.00,   1,1.0000
    14,     15,'1 ',   0.01400,   0.04200,   0.09700,    0.00,    0.00,    0.00,  0.00000,  0.00000,  0.00000,  0.00000,1,   0.00,   1,1.0000
    15,     37,'1 ',   0.06500,   0.24800,   0.12100,    0.00,    0.00,    0.00,  0.00000,  0.00000,  0.00000,  0.00000,1,   0.00,   1,1.0000
    15,     89,'1 ',   0.09900,   0.24800,   0.03500,    0.00,    0.00,    0.00,  0.00000,  0.00000,  0.00000,  0.00000,1,   0.00,   1,1.0000
    15,     90,'1 ',   0.09600,   0.36300,   0.04800,    0.00,    0.00,    0.00,  0.00000,  0.00000,  0.00000,  0.00000,1,   0.00,   1,1.0000
    16,     42,'1 ',   0.00200,   0.02200,   1.28000,    0.00,    0.00,    0.00,  0.00000,  0.00000,  0.00000,  0.00000,1,   0.00,   1,1.0000
    19,     21,'1 ',   0.00200,   0.01800,   0.03600,    0.00,    0.00,    0.00,  0.00000,  0.00000,  0.00000,  0.00000,1,   0.00,   1,1.0000
    19,     87,'1 ',   0.01300,   0.08000,   0.15100,    0.00,    0.00,    0.00,  0.00000,  0.00000,  0.00000,  0.00000,1,   0.00,   1,1.0000
    20,     22,'1 ',   0.01600,   0.03300,   0.01500,    0.00,    0.00,    0.00,  0.00000,  0.00000,  0.00000,  0.00000,1,   0.00,   1,1.0000
    20,     27,'1 ',   0.06900,   0.18600,   0.09800,    0.00,    0.00,    0.00,  0.00000,  0.00000,  0.00000,  0.00000,1,   0.00,   1,1.0000
    21,     24,'1 ',   0.00400,   0.03400,   0.28000,    0.00,    0.00,    0.00,  0.00000,  0.00000,  0.00000,  0.00000,1,   0.00,   1,1.0000
    22,     23,'1 ',   0.05200,   0.11100,   0.05000,    0.00,    0.00,    0.00,  0.00000,  0.00000,  0.00000,  0.00000,1,   0.00,   1,1.0000
    23,     25,'1 ',   0.01900,   0.03900,   0.01800,    0.00,    0.00,    0.00,  0.00000,  0.00000,  0.00000,  0.00000,1,   0.00,   1,1.0000
    24,    319,'1 ',   0.00700,   0.06800,   0.13400,    0.00,    0.00,    0.00,  0.00000,  0.00000,  0.00000,  0.00000,1,   0.00,   1,1.0000
    25,     26,'1 ',   0.03600,   0.07100,   0.03400,    0.00,    0.00,    0.00,  0.00000,  0.00000,  0.00000,  0.00000,1,   0.00,   1,1.0000
    26,     27,'1 ',   0.04500,   0.12000,   0.06500,    0.00,    0.00,    0.00,  0.00000,  0.00000,  0.00000,  0.00000,1,   0.00,   1,1.0000
    26,    320,'1 ',   0.04300,   0.13000,   0.01400,    0.00,    0.00,    0.00,  0.00000,  0.00000,  0.00000,  0.00000,1,   0.00,   1,1.0000
    33,     34,'1 ',   0.00000,   0.06300,   0.00000,    0.00,    0.00,    0.00,  0.00000,  0.00000,  0.00000,  0.00000,1,   0.00,   1,1.0000
    33,     38,'1 ',   0.00250,   0.01200,   0.01300,    0.00,    0.00,    0.00,  0.00000,  0.00000,  0.00000,  0.00000,1,   0.00,   1,1.0000
    33,     40,'1 ',   0.00600,   0.02900,   0.02000,    0.00,    0.00,    0.00,  0.00000,  0.00000,  0.00000,  0.00000,1,   0.00,   1,1.0000
    33,     41,'1 ',   0.00700,   0.04300,   0.02600,    0.00,    0.00,    0.00,  0.00000,  0.00000,  0.00000,  0.00000,1,   0.00,   1,1.0000
    34,     42,'1 ',   0.00100,   0.00800,   0.04200,    0.00,    0.00,    0.00,  0.00000,  0.00000,  0.00000,  0.00000,1,   0.00,   1,1.0000
    35,     72,'1 ',   0.01200,   0.06000,   0.00800,    0.00,    0.00,    0.00,  0.00000,  0.00000,  0.00000,  0.00000,1,   0.00,   1,1.0000
    35,     76,'1 ',   0.00600,   0.01400,   0.00200,    0.00,    0.00,    0.00,  0.00000,  0.00000,  0.00000,  0.00000,1,   0.00,   1,1.0000
    35,     77,'1 ',   0.01000,   0.02900,   0.00300,    0.00,    0.00,    0.00,  0.00000,  0.00000,  0.00000,  0.00000,1,   0.00,   1,1.0000
    36,     88,'1 ',   0.00400,   0.02700,   0.04300,    0.00,    0.00,    0.00,  0.00000,  0.00000,  0.00000,  0.00000,1,   0.00,   1,1.0000
    37,     38,'1 ',   0.00800,   0.04700,   0.00800,    0.00,    0.00,    0.00,  0.00000,  0.00000,  0.00000,  0.00000,1,   0.00,   1,1.0000
    37,     40,'1 ',   0.02200,   0.06400,   0.00700,    0.00,    0.00,    0.00,  0.00000,  0.00000,  0.00000,  0.00000,1,   0.00,   1,1.0000
    37,     41,'1 ',   0.01000,   0.03600,   0.02000,    0.00,    0.00,    0.00,  0.00000,  0.00000,  0.00000,  0.00000,1,   0.00,   1,1.0000
    37,     49,'1 ',   0.01700,   0.08100,   0.04800,    0.00,    0.00,    0.00,  0.00000,  0.00000,  0.00000,  0.00000,1,   0.00,   1,1.0000
    37,     89,'1 ',   0.10200,   0.25400,   0.03300,    0.00,    0.00,    0.00,  0.00000,  0.00000,  0.00000,  0.00000,1,   0.00,   1,1.0000
    37,     90,'1 ',   0.04700,   0.12700,   0.01600,    0.00,    0.00,    0.00,  0.00000,  0.00000,  0.00000,  0.00000,1,   0.00,   1,1.0000
    38,     41,'1 ',   0.00800,   0.03700,   0.02000,    0.00,    0.00,    0.00,  0.00000,  0.00000,  0.00000,  0.00000,1,   0.00,   1,1.0000
    38,     43,'1 ',   0.03200,   0.08700,   0.04000,    0.00,    0.00,    0.00,  0.00000,  0.00000,  0.00000,  0.00000,1,   0.00,   1,1.0000
    39,     42,'1 ',   0.00060,   0.00640,   0.40400,    0.00,    0.00,    0.00,  0.00000,  0.00000,  0.00000,  0.00000,1,   0.00,   1,1.0000
    40,     48,'1 ',   0.02600,   0.15400,   0.02200,    0.00,    0.00,    0.00,  0.00000,  0.00000,  0.00000,  0.00000,1,   0.00,   1,1.0000
    41,     42,'1 ',   0.00000,   0.02900,   0.00000,    0.00,    0.00,    0.00,  0.00000,  0.00000,  0.00000,  0.00000,1,   0.00,   1,1.0000
    41,     49,'1 ',   0.06500,   0.19100,   0.02000,    0.00,    0.00,    0.00,  0.00000,  0.00000,  0.00000,  0.00000,1,   0.00,   1,1.0000
    41,     51,'1 ',   0.03100,   0.08900,   0.03600,    0.00,    0.00,    0.00,  0.00000,  0.00000,  0.00000,  0.00000,1,   0.00,   1,1.0000
    42,     46,'1 ',   0.00200,   0.01400,   0.80600,    0.00,    0.00,    0.00,  0.00000,  0.00000,  0.00000,  0.00000,1,   0.00,   1,1.0000
    43,     44,'1 ',   0.02600,   0.07200,   0.03500,    0.00,    0.00,    0.00,  0.00000,  0.00000,  0.00000,  0.00000,1,   0.00,   1,1.0000
    43,     48,'1 ',   0.09500,   0.26200,   0.03200,    0.00,    0.00,    0.00,  0.00000,  0.00000,  0.00000,  0.00000,1,   0.00,   1,1.0000
    43,     53,'1 ',   0.01300,   0.03900,   0.01600,    0.00,    0.00,    0.00,  0.00000,  0.00000,  0.00000,  0.00000,1,   0.00,   1,1.0000
    44,     47,'1 ',   0.02700,   0.08400,   0.03900,    0.00,    0.00,    0.00,  0.00000,  0.00000,  0.00000,  0.00000,1,   0.00,   1,1.0000
    44,     54,'1 ',   0.02800,   0.08400,   0.03700,    0.00,    0.00,    0.00,  0.00000,  0.00000,  0.00000,  0.00000,1,   0.00,   1,1.0000
    45,     60,'1 ',   0.00700,   0.04100,   0.31200,    0.00,    0.00,    0.00,  0.00000,  0.00000,  0.00000,  0.00000,1,   0.00,   1,1.0000
    45,     74,'1 ',   0.00900,   0.05400,   0.41100,    0.00,    0.00,    0.00,  0.00000,  0.00000,  0.00000,  0.00000,1,   0.00,   1,1.0000
    46,     81,'1 ',   0.00500,   0.04200,   0.69000,    0.00,    0.00,    0.00,  0.00000,  0.00000,  0.00000,  0.00000,1,   0.00,   1,1.0000
    47,     73,'1 ',   0.05200,   0.14500,   0.07300,    0.00,    0.00,    0.00,  0.00000,  0.00000,  0.00000,  0.00000,1,   0.00,   1,1.0000
    47,    113,'1 ',   0.04300,   0.11800,   0.01300,    0.00,    0.00,    0.00,  0.00000,  0.00000,  0.00000,  0.00000,1,   0.00,   1,1.0000
    48,    107,'1 ',   0.02500,   0.06200,   0.00700,    0.00,    0.00,    0.00,  0.00000,  0.00000,  0.00000,  0.00000,1,   0.00,   1,1.0000
    49,     51,'1 ',   0.03100,   0.09400,   0.04300,    0.00,    0.00,    0.00,  0.00000,  0.00000,  0.00000,  0.00000,1,   0.00,   1,1.0000
    51,     52,'1 ',   0.03700,   0.10900,   0.04900,    0.00,    0.00,    0.00,  0.00000,  0.00000,  0.00000,  0.00000,1,   0.00,   1,1.0000
    52,     55,'1 ',   0.02700,   0.08000,   0.03600,    0.00,    0.00,    0.00,  0.00000,  0.00000,  0.00000,  0.00000,1,   0.00,   1,1.0000
    53,     54,'1 ',   0.02500,   0.07300,   0.03500,    0.00,    0.00,    0.00,  0.00000,  0.00000,  0.00000,  0.00000,1,   0.00,   1,1.0000
    54,     55,'1 ',   0.03500,   0.10300,   0.04700,    0.00,    0.00,    0.00,  0.00000,  0.00000,  0.00000,  0.00000,1,   0.00,   1,1.0000
    55,     57,'1 ',   0.06500,   0.16900,   0.08200,    0.00,    0.00,    0.00,  0.00000,  0.00000,  0.00000,  0.00000,1,   0.00,   1,1.0000
    57,     58,'1 ',   0.04600,   0.08000,   0.03600,    0.00,    0.00,    0.00,  0.00000,  0.00000,  0.00000,  0.00000,1,   0.00,   1,1.0000
    57,     63,'1 ',   0.15900,   0.53700,   0.07100,    0.00,    0.00,    0.00,  0.00000,  0.00000,  0.00000,  0.00000,1,   0.00,   1,1.0000
    58,     59,'1 ',   0.00900,   0.02600,   0.00500,    0.00,    0.00,    0.00,  0.00000,  0.00000,  0.00000,  0.00000,1,   0.00,   1,1.0000
    59,     61,'1 ',   0.00200,   0.01300,   0.01500,    0.00,    0.00,    0.00,  0.00000,  0.00000,  0.00000,  0.00000,1,   0.00,   1,1.0000
    60,     62,'1 ',   0.00900,   0.06500,   0.48500,    0.00,    0.00,    0.00,  0.00000,  0.00000,  0.00000,  0.00000,1,   0.00,   1,1.0000
    62,     64,'1 ',   0.01600,   0.10500,   0.20300,    0.00,    0.00,    0.00,  0.00000,  0.00000,  0.00000,  0.00000,1,   0.00,   1,1.0000
...